3
Coordinates from ORCA-job water-opt E -76.321072287488
  O       0.000000      0.000000      0.000000
  H       0.757000      0.586000      0.000000
  H      -0.757000      0.586000      0.000000
3
Coordinates from ORCA-job water-opt E -76.321249869342
  O      -0.000000     -0.005967      0.000000
  H       0.761565      0.588984      0.000000
  H      -0.761565      0.588984      0.000000
3
Coordinates from ORCA-job water-opt E -76.321265781135
  O       0.000000     -0.008474      0.000000
  H       0.759338      0.590237      0.000000
  H      -0.759338      0.590237      0.000000
3
Coordinates from ORCA-job water-opt E -76.321263282961
  O      -0.000000     -0.010289      0.000000
  H       0.757162      0.591144      0.000000
  H      -0.757162      0.591144      0.000000
3
Coordinates from ORCA-job water-opt E -76.321269042570
  O       0.000000     -0.010263      0.000000
  H       0.757141      0.591132      0.000000
  H      -0.757141      0.591132      0.000000
