3
Coordinates from ORCA-job co2-opt E -188.360406079655
  O      -1.160000      0.000000      0.000000
  C       0.000000      0.000000      0.000000
  O       1.160000      0.000000      0.000000
3
Coordinates from ORCA-job co2-opt E -188.360449818482
  O      -1.162996     -0.000000      0.000000
  C       0.000000      0.000000     -0.000000
  O       1.162996     -0.000000      0.000000
3
Coordinates from ORCA-job co2-opt E -188.360461519681
  O      -1.163303     -0.000000      0.000000
  C      -0.000000      0.000000     -0.000000
  O       1.163303     -0.000000      0.000000
3
Coordinates from ORCA-job co2-opt E -188.360445800216
  O      -1.163306     -0.000000      0.000000
  C       0.000000      0.000000     -0.000000
  O       1.163306     -0.000000      0.000000
